6
Coordinates from ORCA-job orca4
  C   -1.31111622051068     -0.05153495752964     -0.00006163871424
  O   0.09754841839838      0.03388970844446     -0.00007726215648
  H   -1.68339280895624     -1.09215172683472     -0.00006598649607
  H   -1.73487673649508      0.44886760037616      0.89145989929299
  H   -1.73489377933486      0.44888067714599     -0.89156725118988
  H   0.46048112689848     -0.85762130160225     -0.00003776073633
