4
Coordinates from ORCA-job orca5
  C   0.01157858802765      0.00000000612651     -0.00000000501667
  C   1.20842141113299      0.00000000779798      0.00000000607905
  H   -1.05090051976826     -0.00000000668235      0.00000000131941
  H   2.27090052060762     -0.00000000724213     -0.00000000238178
