43
Coordinates from ORCA-job Ga_acac3_belyp_rij_geo_opt_d3
  C   -2.74397210429434     -1.02167708458712     -0.00974346930773
  C   -2.31745273696507     -2.36207495756779     -0.01721994796285
  C   -0.96806757374756     -2.75912550316349     -0.02669459438211
  H   -3.07943965847779     -3.14108504487450     -0.01798524987107
  C   0.97696720344151     -0.01187808424352      2.74963614776945
  C   2.74073168467077      0.01761956069899      0.99992995727317
  C   2.32355356757270      0.00340621871353      2.34319090373273
  H   3.09100901781247      0.00409587557464      3.11680873653195
  C   0.00489604045985      1.02409464251535     -2.74400922930301
  C   -0.02530563797769      2.76223280628287     -0.96890845215224
  C   -0.00852215117116      2.36464570260946     -2.31805921853711
  H   -0.00759002122964      3.14323333087967     -3.08047144578534
  Ga  -0.00507677593074      0.00187983156996     -0.00477969584634
  O   -0.02503927989527     -0.01119206942130      1.96668392440010
  O   1.96587595277826      0.01554125341845     -0.00844246947017
  O   -1.97607178039097     -0.00801089929650     -0.00420020175910
  O   0.02842657298535     -1.96903080558648     -0.03041415831468
  O   0.01029401836145      0.01066780134015     -1.97577711927626
  O   -0.03225716736718      1.97254611786148      0.02783068983733
  C   0.01154284627698      0.70508585071479     -4.21837353114651
  H   -0.87394069337089      0.09292329566457     -4.45556514270011
  H   0.01734004015454      1.60177076140218     -4.85234458408705
  H   0.89433842793212      0.08582933371481     -4.44580413750062
  C   -0.03744422586016      4.22943967873414     -0.61863249136742
  H   -0.01734582914376      4.88255463329258     -1.50128165525462
  H   -0.93795203478074      4.44584297147600     -0.02094835543351
  H   0.82985178469270      4.45113707455755      0.02430398113415
  C   4.21283296138591      0.03779824381002      0.67121841723610
  H   4.85279638068251      0.04101014893150      1.56365610117105
  H   4.45148436852655     -0.84029418121381      0.04932264719328
  H   4.43044862022221      0.92787061225475      0.05859484473179
  C   0.63654295543004     -0.03248507687534      4.21908829336369
  H   1.52375453569238     -0.02690713152217      4.86626913206085
  H   0.00461189191500      0.84010033323019      4.45125494407239
  H   0.03052591592359     -0.92798527780836      4.43323142489864
  C   -4.21844666627723     -0.70315830869966     -0.01105123213235
  H   -4.85213090839351     -1.60002496069088     -0.00230705444472
  H   -4.44961842166219     -0.07840943910577      0.86686096682544
  H   -4.45231645558993     -0.09674505661375     -0.90138895700505
  C   -0.61702333070072     -4.22617414722320     -0.03298786029148
  H   -1.50001948730828     -4.87895252472167     -0.02777156705030
  H   0.01022589931996     -4.44791921569593      0.84563397070349
  H   -0.00357010153821     -4.44256794494283     -0.92254616147213
