43
Coordinates from ORCA-job Ga_acac3_belyp_rij_geo_opt
  C   0.61591970930167     -2.64250246060357     -1.11852807672990
  C   -0.07571579419039     -3.26340882144877     -0.06102912897264
  C   -0.73228227795682     -2.56230028035305      0.96864034472744
  H   -0.10402998626558     -4.35272381611268     -0.03750548431200
  C   -2.67317382761500      0.83232961665862     -1.07407787541397
  C   -1.86012321969428      2.07145703926716      0.92188142838986
  C   -2.83113182543079      1.79635355439354     -0.05980529091286
  H   -3.76109595610117      2.36384505311448     -0.03245578852143
  C   2.71911622567885      0.75433867189041      0.76550998367669
  C   1.96261652167810      1.92887091660972     -1.29172968925562
  C   2.91987485742266      1.65860339275615     -0.29503937797005
  H   3.87466267231581      2.18111057275504     -0.34833820938477
  Ga  0.00714073708970      0.06219829881996     -0.13655965512231
  O   -1.64820338027828      0.09385539577428     -1.22854910957823
  O   -0.73018319256754      1.49304486142142      1.01600098278089
  O   0.72766825182410     -1.38498722254587     -1.28155767402236
  O   -0.77868431965239     -1.29497081026390      1.07744475737561
  O   1.66228236086714      0.07101356432556      0.95487670906707
  O   0.80622477133917      1.40105847122254     -1.35920272491299
  C   3.81312263682165      0.53751128373713      1.78517967394115
  H   4.11492919349621     -0.52281668560075      1.77088700266260
  H   4.69427957594080      1.16907586100362      1.60987548842954
  H   3.41029382516481      0.73813068816248      2.79121222779579
  C   2.28003640348150      2.91639223701952     -2.39007257150573
  H   3.27954091940798      3.36092087941561     -2.29186270039481
  H   2.19982233967659      2.40621988300946     -3.36397281633116
  H   1.52102799832548      3.71566368716798     -2.38738981482349
  C   -2.12622007228227      3.12903547717080      1.96748196392345
  H   -3.11085342201565      3.60299839629598      1.85719154956278
  H   -2.04827428798466      2.67228590610117      2.96759770984468
  H   -1.33993507596265      3.89951323924148      1.90929490754393
  C   -3.77740771960784      0.61597638418535     -2.08258595617811
  H   -4.63507070691677      1.28464414645389     -1.92949566906755
  H   -3.37153175564701      0.76449791159691     -3.09652552902168
  H   -4.11580051328279     -0.43184419912464     -2.02809543364056
  C   1.30201031385608     -3.48799531335037     -2.16595468952930
  H   1.15628235082894     -4.56561030810652     -2.01107994127938
  H   0.92450805693776     -3.20461658675774     -3.16192408728376
  H   2.38119147282809     -3.26196628919186     -2.15982920172513
  C   -1.45973181277403     -3.32573734796573      2.05078218374476
  H   -1.35891421716987     -4.41481641071871      1.94974868912249
  H   -1.07786505479443     -3.00920234028816      3.03494196270277
  H   -2.52855277609287     -3.05566649713798      2.02388893059833
